!-Generator IDFEditor 1.53
!-Option SortedOrder
!-NOTE: All comments with '!-' are ignored by the IDFEditor and are generated automatically.
!-      Use '!' comments if they need to be retained when using the IDFEditor.
!-   ===========  ALL OBJECTS IN CLASS: VERSION ===========

  Version,24.2;

!-   ===========  ALL OBJECTS IN CLASS: SIMULATIONCONTROL ===========

  SimulationControl,
    No,                      !- Do Zone Sizing Calculation
    Yes,                     !- Do System Sizing Calculation
    No,                      !- Do Plant Sizing Calculation
    No,                      !- Run Simulation for Sizing Periods
    Yes,                     !- Run Simulation for Weather File Run Periods
    No,                      !- Do HVAC Sizing Simulation for Sizing Periods
    1;                       !- Maximum Number of HVAC Sizing Simulation Passes

!-   ===========  ALL OBJECTS IN CLASS: BUILDING ===========

  Building,
    None,                    !- Name
    0,                       !- North Axis {deg}
    Suburbs,                 !- Terrain
    0.04,                    !- Loads Convergence Tolerance Value {W}
    0.4,                     !- Temperature Convergence Tolerance Value {deltaC}
    FullExterior,            !- Solar Distribution
    25,                      !- Maximum Number of Warmup Days
    6;                       !- Minimum Number of Warmup Days

!-   ===========  ALL OBJECTS IN CLASS: HEATBALANCEALGORITHM ===========

  HeatBalanceAlgorithm,ConductionFiniteDifference,200,0.1,1000;

!-   ===========  ALL OBJECTS IN CLASS: TIMESTEP ===========

  Timestep,30;

!-   ===========  ALL OBJECTS IN CLASS: SITE:LOCATION ===========

  Site:Location,
    POTSDAM,                 !- Name
    52.40306,                !- Latitude {deg}
    13.06578,                !- Longitude {deg}
    0,                       !- Time Zone {hr}
    34;                      !- Elevation {m}

!-   ===========  ALL OBJECTS IN CLASS: SIZINGPERIOD:DESIGNDAY ===========

  SizingPeriod:DesignDay,
    DENVER_STAPLETON Ann Htg 99.6% Condns DB,  !- Name
    12,                      !- Month
    21,                      !- Day of Month
    WinterDesignDay,         !- Day Type
    -20,                     !- Maximum Dry-Bulb Temperature {C}
    0,                       !- Daily Dry-Bulb Temperature Range {deltaC}
    ,                        !- Dry-Bulb Temperature Range Modifier Type
    ,                        !- Dry-Bulb Temperature Range Modifier Day Schedule Name
    Wetbulb,                 !- Humidity Condition Type
    -20,                     !- Wetbulb or DewPoint at Maximum Dry-Bulb {C}
    ,                        !- Humidity Condition Day Schedule Name
    ,                        !- Humidity Ratio at Maximum Dry-Bulb {kgWater/kgDryAir}
    ,                        !- Enthalpy at Maximum Dry-Bulb {J/kg}
    ,                        !- Daily Wet-Bulb Temperature Range {deltaC}
    83411,                   !- Barometric Pressure {Pa}
    2.3,                     !- Wind Speed {m/s}
    180,                     !- Wind Direction {deg}
    No,                      !- Rain Indicator
    No,                      !- Snow Indicator
    No,                      !- Daylight Saving Time Indicator
    ASHRAEClearSky,          !- Solar Model Indicator
    ,                        !- Beam Solar Day Schedule Name
    ,                        !- Diffuse Solar Day Schedule Name
    ,                        !- ASHRAE Clear Sky Optical Depth for Beam Irradiance (taub) {dimensionless}
    ,                        !- ASHRAE Clear Sky Optical Depth for Diffuse Irradiance (taud) {dimensionless}
    0;                       !- Sky Clearness

  SizingPeriod:DesignDay,
    DENVER_STAPLETON Ann Clg .4% Condns DB=>MWB,  !- Name
    7,                       !- Month
    21,                      !- Day of Month
    SummerDesignDay,         !- Day Type
    34.1,                    !- Maximum Dry-Bulb Temperature {C}
    15.2,                    !- Daily Dry-Bulb Temperature Range {deltaC}
    ,                        !- Dry-Bulb Temperature Range Modifier Type
    ,                        !- Dry-Bulb Temperature Range Modifier Day Schedule Name
    Wetbulb,                 !- Humidity Condition Type
    15.8,                    !- Wetbulb or DewPoint at Maximum Dry-Bulb {C}
    ,                        !- Humidity Condition Day Schedule Name
    ,                        !- Humidity Ratio at Maximum Dry-Bulb {kgWater/kgDryAir}
    ,                        !- Enthalpy at Maximum Dry-Bulb {J/kg}
    ,                        !- Daily Wet-Bulb Temperature Range {deltaC}
    83411,                   !- Barometric Pressure {Pa}
    4,                       !- Wind Speed {m/s}
    120,                     !- Wind Direction {deg}
    No,                      !- Rain Indicator
    No,                      !- Snow Indicator
    No,                      !- Daylight Saving Time Indicator
    ASHRAEClearSky,          !- Solar Model Indicator
    ,                        !- Beam Solar Day Schedule Name
    ,                        !- Diffuse Solar Day Schedule Name
    ,                        !- ASHRAE Clear Sky Optical Depth for Beam Irradiance (taub) {dimensionless}
    ,                        !- ASHRAE Clear Sky Optical Depth for Diffuse Irradiance (taud) {dimensionless}
    1;                       !- Sky Clearness

!-   ===========  ALL OBJECTS IN CLASS: RUNPERIOD ===========

  RunPeriod,
    Run Period 1,            !- Name
    1,                       !- Begin Month
    1,                       !- Begin Day of Month
    ,                        !- Begin Year
    2,                      !- End Month
    28,                      !- End Day of Month
    ,                        !- End Year
    Tuesday,                 !- Day of Week for Start Day
    Yes,                     !- Use Weather File Holidays and Special Days
    Yes,                     !- Use Weather File Daylight Saving Period
    No,                      !- Apply Weekend Holiday Rule
    Yes,                     !- Use Weather File Rain Indicators
    Yes;                     !- Use Weather File Snow Indicators

!-   ===========  ALL OBJECTS IN CLASS: SITE:GROUNDTEMPERATURE:BUILDINGSURFACE ===========

  Site:GroundTemperature:BuildingSurface,18,18,18,18,18,18,18,18,18,18,18,18;

!-   ===========  ALL OBJECTS IN CLASS: SCHEDULETYPELIMITS ===========

  ScheduleTypeLimits,
    Fraction,                !- Name
    0.0,                     !- Lower Limit Value
    1.0,                     !- Upper Limit Value
    Continuous;              !- Numeric Type

  ScheduleTypeLimits,
    On/Off,                  !- Name
    0.0,                     !- Lower Limit Value
    1.0,                     !- Upper Limit Value
    Discrete;                !- Numeric Type

  ScheduleTypeLimits,
    Temperature,             !- Name
    ,                        !- Lower Limit Value
    ,                        !- Upper Limit Value
    ,                        !- Numeric Type
    Dimensionless;           !- Unit Type

  ScheduleTypeLimits,
    Any Number,              !- Name
    ,                        !- Lower Limit Value
    ,                        !- Upper Limit Value
    ,                        !- Numeric Type
    Dimensionless;           !- Unit Type

!-   ===========  ALL OBJECTS IN CLASS: SCHEDULE:DAY:HOURLY ===========

  Schedule:Day:Hourly,
    Schedule Heating Living, !- Name
    Temperature,             !- Schedule Type Limits Name
    21,                      !- Hour 1
    21,                      !- Hour 2
    21,                      !- Hour 3
    21,                      !- Hour 4
    21,                      !- Hour 5
    21,                      !- Hour 6
    21,                      !- Hour 7
    21,                      !- Hour 8
    21,                      !- Hour 9
    21,                      !- Hour 10
    21,                      !- Hour 11
    21,                      !- Hour 12
    21,                      !- Hour 13
    21,                      !- Hour 14
    21,                      !- Hour 15
    21,                      !- Hour 16
    21,                      !- Hour 17
    21,                      !- Hour 18
    21,                      !- Hour 19
    21,                      !- Hour 20
    21,                      !- Hour 21
    21,                      !- Hour 22
    21,                      !- Hour 23
    21;                      !- Hour 24

  Schedule:Day:Hourly,
    Schedule Cooling Living, !- Name
    Temperature,             !- Schedule Type Limits Name
    21,                      !- Hour 1
    21,                      !- Hour 2
    21,                      !- Hour 3
    21,                      !- Hour 4
    21,                      !- Hour 5
    21,                      !- Hour 6
    21,                      !- Hour 7
    21,                      !- Hour 8
    21,                      !- Hour 9
    21,                      !- Hour 10
    21,                      !- Hour 11
    21,                      !- Hour 12
    21,                      !- Hour 13
    21,                      !- Hour 14
    21,                      !- Hour 15
    21,                      !- Hour 16
    21,                      !- Hour 17
    21,                      !- Hour 18
    21,                      !- Hour 19
    21,                      !- Hour 20
    21,                      !- Hour 21
    21,                      !- Hour 22
    21,                      !- Hour 23
    21;                      !- Hour 24

  Schedule:Day:Hourly,
    Schedule People Living,  !- Name
    Fraction,                !- Schedule Type Limits Name
    1,                       !- Hour 1
    1,                       !- Hour 2
    1,                       !- Hour 3
    1,                       !- Hour 4
    1,                       !- Hour 5
    1,                       !- Hour 6
    0.8,                     !- Hour 7
    0.6,                     !- Hour 8
    0.4,                     !- Hour 9
    0.4,                     !- Hour 10
    0.4,                     !- Hour 11
    0.6,                     !- Hour 12
    0.8,                     !- Hour 13
    0.6,                     !- Hour 14
    0.4,                     !- Hour 15
    0.4,                     !- Hour 16
    0.6,                     !- Hour 17
    0.8,                     !- Hour 18
    0.8,                     !- Hour 19
    0.8,                     !- Hour 20
    0.8,                     !- Hour 21
    1,                       !- Hour 22
    1,                       !- Hour 23
    1;                       !- Hour 24

  Schedule:Day:Hourly,
    Schedule Equipment Living,  !- Name
    Fraction,                !- Schedule Type Limits Name
    0.1,                     !- Hour 1
    0.1,                     !- Hour 2
    0.1,                     !- Hour 3
    0.1,                     !- Hour 4
    0.1,                     !- Hour 5
    0.1,                     !- Hour 6
    0.5,                     !- Hour 7
    1,                       !- Hour 8
    0.5,                     !- Hour 9
    0.5,                     !- Hour 10
    0.5,                     !- Hour 11
    1,                       !- Hour 12
    1,                       !- Hour 13
    0.5,                     !- Hour 14
    0.5,                     !- Hour 15
    0.5,                     !- Hour 16
    1,                       !- Hour 17
    1,                       !- Hour 18
    1,                       !- Hour 19
    1,                       !- Hour 20
    0.5,                     !- Hour 21
    0.5,                     !- Hour 22
    0.5,                     !- Hour 23
    0.1;                     !- Hour 24

  Schedule:Day:Hourly,
    Schedule Lighting Living,!- Name
    Fraction,                !- Schedule Type Limits Name
    0,                       !- Hour 1
    0,                       !- Hour 2
    0,                       !- Hour 3
    0,                       !- Hour 4
    0,                       !- Hour 5
    0,                       !- Hour 6
    1,                       !- Hour 7
    1,                       !- Hour 8
    1,                       !- Hour 9
    1,                       !- Hour 10
    1,                       !- Hour 11
    1,                       !- Hour 12
    1,                       !- Hour 13
    1,                       !- Hour 14
    1,                       !- Hour 15
    1,                       !- Hour 16
    1,                       !- Hour 17
    1,                       !- Hour 18
    0,                       !- Hour 19
    0,                       !- Hour 20
    0,                       !- Hour 21
    0,                       !- Hour 22
    0,                       !- Hour 23
    0;                       !- Hour 24

!-   ===========  ALL OBJECTS IN CLASS: SCHEDULE:WEEK:COMPACT ===========

  Schedule:Week:Compact,
    Schedule Heating Living, !- Name
    AllDays,                 !- DayType List 1
    Schedule Heating Living; !- Schedule:Day Name 1

  Schedule:Week:Compact,
    Schedule Cooling Living, !- Name
    AllDays,                 !- DayType List 1
    Schedule Cooling Living; !- Schedule:Day Name 1

  Schedule:Week:Compact,
    Schedule People Living,  !- Name
    AllDays,                 !- DayType List 1
    Schedule People Living;  !- Schedule:Day Name 1

  Schedule:Week:Compact,
    Schedule Equipment Living,  !- Name
    AllDays,                 !- DayType List 1
    Schedule Equipment Living;  !- Schedule:Day Name 1

  Schedule:Week:Compact,
    Schedule Lighting Living,!- Name
    AllDays,                 !- DayType List 1
    Schedule Lighting Living;!- Schedule:Day Name 1

!-   ===========  ALL OBJECTS IN CLASS: SCHEDULE:YEAR ===========

  Schedule:Year,
    Schedule Heating Living, !- Name
    Temperature,             !- Schedule Type Limits Name
    Schedule Heating Living, !- Schedule:Week Name 1
    1,                       !- Start Month 1
    1,                       !- Start Day 1
    12,                      !- End Month 1
    31;                      !- End Day 1

  Schedule:Year,
    Schedule Cooling Living, !- Name
    Temperature,             !- Schedule Type Limits Name
    Schedule Cooling Living, !- Schedule:Week Name 1
    1,                       !- Start Month 1
    1,                       !- Start Day 1
    12,                      !- End Month 1
    31;                      !- End Day 1

  Schedule:Year,
    Schedule People Living,  !- Name
    Fraction,                !- Schedule Type Limits Name
    Schedule People Living,  !- Schedule:Week Name 1
    1,                       !- Start Month 1
    1,                       !- Start Day 1
    12,                      !- End Month 1
    31;                      !- End Day 1

  Schedule:Year,
    Schedule Equipment Living,  !- Name
    Fraction,                !- Schedule Type Limits Name
    Schedule Equipment Living,  !- Schedule:Week Name 1
    1,                       !- Start Month 1
    1,                       !- Start Day 1
    12,                      !- End Month 1
    31;                      !- End Day 1

  Schedule:Year,
    Schedule Lighting Living,!- Name
    Fraction,                !- Schedule Type Limits Name
    Schedule Lighting Living,!- Schedule:Week Name 1
    1,                       !- Start Month 1
    1,                       !- Start Day 1
    12,                      !- End Month 1
    31;                      !- End Day 1

!-   ===========  ALL OBJECTS IN CLASS: SCHEDULE:COMPACT ===========

  Schedule:Compact,
    Constant,                !- Name
    on/off,                  !- Schedule Type Limits Name
    Through: 12/31,          !- Field 1
    For: AllDays,            !- Field 2
    Until: 24:00,1.0;        !- Field 3

  Schedule:Compact,
    Continuous,              !- Name
    on/off,                  !- Schedule Type Limits Name
    Through: 12/31,          !- Field 1
    For: AllDays,            !- Field 2
    Until: 24:00,1.0;        !- Field 3

  Schedule:Compact,
    Daytime Ventilation,     !- Name
    Fraction,                !- Schedule Type Limits Name
    Through: 12/31,          !- Field 1
    For: Weekdays SummerDesignDay, !- Field 2
    Until: 08:00,0.0,        !- Field 3
    Until: 18:00,1.0,        !- Field 5
    Until: 24:00,0.0,        !- Field 7
    For: Weekends WinterDesignDay, !- Field 9
    Until: 10:00,0.0,        !- Field 10
    Until: 16:00,1.0,        !- Field 12
    Until: 24:00,0.0,        !- Field 14
    For: Holidays AllOtherDays, !- Field 16
    Until: 24:00,0.0;        !- Field 17

  Schedule:Compact,
    Intermittent,            !- Name
    Fraction,                !- Schedule Type Limits Name
    Through: 12/31,          !- Field 1
    For: AllDays,            !- Field 2
    Until: 08:00,0.0,        !- Field 3
    Until: 18:00,1.0,        !- Field 5
    Until: 24:00,0.0;        !- Field 7

  Schedule:Compact,
    Maximum Outside Air,     !- Name
    Fraction,                !- Schedule Type Limits Name
    Through: 12/31,          !- Field 1
    For: AllDays,            !- Field 2
    Until: 24:00,1.0;        !- Field 3

  Schedule:Compact,
    Minimum Outside Air,     !- Name
    Fraction,                !- Schedule Type Limits Name
    Through: 12/31,          !- Field 1
    For: Weekdays SummerDesignDay, !- Field 2
    Until: 24:00,0.15,       !- Field 3
    For: Weekends WinterDesignDay Holidays AllOtherDays, !- Field 5
    Until: 24:00,0.05;       !- Field 6

  Schedule:Compact,
    Off,                     !- Name
    on/off,                  !- Schedule Type Limits Name
    Through: 12/31,          !- Field 1
    For: AllDays,            !- Field 2
    Until: 24:00,0.0;        !- Field 3

  Schedule:Compact,
    On,                      !- Name
    Fraction,                !- Schedule Type Limits Name
    Through: 12/31,          !- Field 1
    For: AllDays,            !- Field 2
    Until: 24:00,1.0;        !- Field 3

  Schedule:Compact,
    VAV Minimum Air Fraction,!- Name
    Fraction,                !- Schedule Type Limits Name
    Through: 12/31,          !- Field 1
    For: AllDays,            !- Field 2
    Until: 24:00,0.1;        !- Field 3

  Schedule:Compact,
    Assembly HVAC,           !- Name
    on/off,                  !- Schedule Type Limits Name
    Through: 12/31,          !- Field 1
    For: Weekdays SummerDesignDay, !- Field 2
    Until: 05:00,0.0,        !- Field 3
    Until: 23:00,1.0,        !- Field 5
    Until: 24:00,0.0,        !- Field 7
    For: Saturday WinterDesignDay, !- Field 9
    Until: 06:00,0.0,        !- Field 10
    Until: 23:00,1.0,        !- Field 12
    Until: 24:00,0.0,        !- Field 14
    For: Sunday Holidays AllOtherDays, !- Field 16
    Until: 06:00,0.0,        !- Field 17
    Until: 23:00,1.0,        !- Field 19
    Until: 24:00,0.0;        !- Field 21

  Schedule:Compact,
    Assembly Lighting,       !- Name
    Fraction,                !- Schedule Type Limits Name
    Through: 12/31,          !- Field 1
    For: Weekdays SummerDesignDay, !- Field 2
    Until: 08:00,0.0,        !- Field 3
    Until: 11:00,0.4,        !- Field 5
    Until: 22:00,0.75,       !- Field 7
    Until: 23:00,0.25,       !- Field 9
    Until: 24:00,0.0,        !- Field 11
    For: Saturday WinterDesignDay, !- Field 13
    Until: 07:00,0.0,        !- Field 14
    Until: 09:00,0.3,        !- Field 16
    Until: 23:00,0.5,        !- Field 18
    Until: 24:00,0.0,        !- Field 20
    For: Sunday Holidays AllOtherDays, !- Field 22
    Until: 07:00,0.0,        !- Field 23
    Until: 12:00,0.3,        !- Field 25
    Until: 22:00,0.65,       !- Field 27
    Until: 24:00,0.0;        !- Field 29

  Schedule:Compact,
    Assembly Occupancy,      !- Name
    Fraction,                !- Schedule Type Limits Name
    Through: 12/31,          !- Field 1
    For: Weekdays SummerDesignDay, !- Field 2
    Until: 08:00,0.0,        !- Field 3
    Until: 12:00,0.2,        !- Field 5
    Until: 18:00,0.8,        !- Field 7
    Until: 22:00,0.2,        !- Field 9
    Until: 23:00,0.1,        !- Field 11
    Until: 24:00,0.0,        !- Field 13
    For: Saturday WinterDesignDay, !- Field 15
    Until: 08:00,0.0,        !- Field 16
    Until: 12:00,0.2,        !- Field 18
    Until: 21:00,0.6,        !- Field 20
    Until: 22:00,0.8,        !- Field 22
    Until: 23:00,0.1,        !- Field 24
    Until: 24:00,0.0,        !- Field 26
    For: Sunday Holidays AllOtherDays, !- Field 28
    Until: 08:00,0.0,        !- Field 29
    Until: 13:00,0.1,        !- Field 31
    Until: 22:00,0.7,        !- Field 33
    Until: 23:00,0.2,        !- Field 35
    Until: 24:00,0.0;        !- Field 37

  Schedule:Compact,
    Assembly SWH,            !- Name
    Fraction,                !- Schedule Type Limits Name
    Through: 12/31,          !- Field 1
    For: Weekdays SummerDesignDay, !- Field 2
    Until: 09:00,0.0,        !- Field 3
    Until: 11:00,0.05,       !- Field 5
    Until: 12:00,0.35,       !- Field 7
    Until: 17:00,0.05,       !- Field 9
    Until: 24:00,0.0,        !- Field 11
    For: Saturday WinterDesignDay, !- Field 13
    Until: 09:00,0.0,        !- Field 14
    Until: 11:00,0.05,       !- Field 16
    Until: 12:00,0.2,        !- Field 18
    Until: 19:00,0.0,        !- Field 20
    Until: 20:00,0.65,       !- Field 22
    Until: 21:00,0.3,        !- Field 24
    Until: 24:00,0.0,        !- Field 26
    For: Sunday Holidays AllOtherDays, !- Field 28
    Until: 09:00,0.0,        !- Field 29
    Until: 11:00,0.05,       !- Field 31
    Until: 12:00,0.1,        !- Field 33
    Until: 20:00,0.0,        !- Field 35
    Until: 21:00,0.65,       !- Field 37
    Until: 22:00,0.3,        !- Field 39
    Until: 24:00,0.0;        !- Field 41

  Schedule:Compact,
    Health HVAC,             !- Name
    on/off,                  !- Schedule Type Limits Name
    Through: 12/31,          !- Field 1
    For: AllDays,            !- Field 2
    Until: 24:00,1.0;        !- Field 3

  Schedule:Compact,
    Health Lighting,         !- Name
    Fraction,                !- Schedule Type Limits Name
    Through: 12/31,          !- Field 1
    For: Weekdays SummerDesignDay, !- Field 2
    Until: 07:00,0.1,        !- Field 3
    Until: 08:00,0.5,        !- Field 5
    Until: 16:00,0.9,        !- Field 7
    Until: 23:00,0.3,        !- Field 9
    Until: 24:00,0.1,        !- Field 11
    For: Saturday WinterDesignDay, !- Field 13
    Until: 07:00,0.1,        !- Field 14
    Until: 08:00,0.2,        !- Field 16
    Until: 18:00,0.4,        !- Field 18
    Until: 24:00,0.1,        !- Field 20
    For: Sunday Holidays AllOtherDays, !- Field 22
    Until: 08:00,0.05,       !- Field 23
    Until: 16:00,0.1,        !- Field 25
    Until: 24:00,0.05;       !- Field 27

  Schedule:Compact,
    Health Occupancy,        !- Name
    Fraction,                !- Schedule Type Limits Name
    Through: 12/31,          !- Field 1
    For: Weekdays SummerDesignDay, !- Field 2
    Until: 07:00,0.0,        !- Field 3
    Until: 08:00,0.1,        !- Field 5
    Until: 09:00,0.5,        !- Field 7
    Until: 17:00,0.8,        !- Field 9
    Until: 18:00,0.5,        !- Field 11
    Until: 20:00,0.3,        !- Field 13
    Until: 22:00,0.2,        !- Field 15
    Until: 24:00,0.0,        !- Field 17
    For: Saturday WinterDesignDay, !- Field 19
    Until: 07:00,0.0,        !- Field 20
    Until: 08:00,0.1,        !- Field 22
    Until: 09:00,0.3,        !- Field 24
    Until: 17:00,0.4,        !- Field 26
    Until: 19:00,0.1,        !- Field 28
    Until: 24:00,0.0,        !- Field 30
    For: Sunday Holidays AllOtherDays, !- Field 32
    Until: 08:00,0.0,        !- Field 33
    Until: 16:00,0.05,       !- Field 35
    Until: 24:00,0.0;        !- Field 37

  Schedule:Compact,
    Health SWH,              !- Name
    Fraction,                !- Schedule Type Limits Name
    Through: 12/31,          !- Field 1
    For: Weekdays SummerDesignDay, !- Field 2
    Until: 07:00,0.1,        !- Field 3
    Until: 08:00,0.17,       !- Field 5
    Until: 09:00,0.58,       !- Field 7
    Until: 10:00,0.66,       !- Field 9
    Until: 11:00,0.78,       !- Field 11
    Until: 12:00,0.82,       !- Field 13
    Until: 13:00,0.71,       !- Field 15
    Until: 14:00,0.82,       !- Field 17
    Until: 15:00,0.78,       !- Field 19
    Until: 16:00,0.74,       !- Field 21
    Until: 17:00,0.63,       !- Field 23
    Until: 18:00,0.41,       !- Field 25
    Until: 21:00,0.18,       !- Field 27
    Until: 22:00,0.1,        !- Field 29
    Until: 24:00,0.01,       !- Field 31
    For: Saturday WinterDesignDay, !- Field 33
    Until: 08:00,0.1,        !- Field 34
    Until: 09:00,0.2,        !- Field 36
    Until: 10:00,0.28,       !- Field 38
    Until: 12:00,0.3,        !- Field 40
    Until: 14:00,0.24,       !- Field 42
    Until: 17:00,0.23,       !- Field 44
    Until: 18:00,0.1,        !- Field 46
    Until: 24:00,0.01,       !- Field 48
    For: Sunday Holidays AllOtherDays, !- Field 50
    Until: 24:00,0.01;       !- Field 51

  Schedule:Compact,
    Hotel HVAC,              !- Name
    on/off,                  !- Schedule Type Limits Name
    Through: 12/31,          !- Field 1
    For: AllDays,            !- Field 2
    Until: 24:00,1.0;        !- Field 3

  Schedule:Compact,
    Hotel Lighting,          !- Name
    Fraction,                !- Schedule Type Limits Name
    Through: 12/31,          !- Field 1
    For: Weekdays SummerDesignDay, !- Field 2
    Until: 01:00,0.2,        !- Field 3
    Until: 02:00,0.15,       !- Field 5
    Until: 05:00,0.1,        !- Field 7
    Until: 06:00,0.2,        !- Field 9
    Until: 07:00,0.4,        !- Field 11
    Until: 08:00,0.5,        !- Field 13
    Until: 10:00,0.4,        !- Field 15
    Until: 18:00,0.25,       !- Field 17
    Until: 19:00,0.6,        !- Field 19
    Until: 20:00,0.8,        !- Field 21
    Until: 21:00,0.9,        !- Field 23
    Until: 22:00,0.8,        !- Field 25
    Until: 23:00,0.6,        !- Field 27
    Until: 24:00,0.3,        !- Field 29
    For: Saturday WinterDesignDay, !- Field 31
    Until: 02:00,0.2,        !- Field 32
    Until: 06:00,0.1,        !- Field 34
    Until: 08:00,0.3,        !- Field 36
    Until: 10:00,0.4,        !- Field 38
    Until: 11:00,0.3,        !- Field 40
    Until: 18:00,0.25,       !- Field 42
    Until: 19:00,0.6,        !- Field 44
    Until: 22:00,0.7,        !- Field 46
    Until: 23:00,0.6,        !- Field 48
    Until: 24:00,0.3,        !- Field 50
    For: Sunday Holidays AllOtherDays, !- Field 52
    Until: 02:00,0.3,        !- Field 53
    Until: 06:00,0.2,        !- Field 55
    Until: 07:00,0.3,        !- Field 57
    Until: 09:00,0.4,        !- Field 59
    Until: 13:00,0.3,        !- Field 61
    Until: 18:00,0.2,        !- Field 63
    Until: 19:00,0.5,        !- Field 65
    Until: 20:00,0.7,        !- Field 67
    Until: 21:00,0.8,        !- Field 69
    Until: 22:00,0.6,        !- Field 71
    Until: 23:00,0.5,        !- Field 73
    Until: 24:00,0.3;        !- Field 75

  Schedule:Compact,
    Hotel Occupancy,         !- Name
    Fraction,                !- Schedule Type Limits Name
    Through: 12/31,          !- Field 1
    For: Weekdays SummerDesignDay, !- Field 2
    Until: 06:00,0.9,        !- Field 3
    Until: 07:00,0.7,        !- Field 5
    Until: 09:00,0.4,        !- Field 7
    Until: 15:00,0.2,        !- Field 9
    Until: 16:00,0.3,        !- Field 11
    Until: 19:00,0.5,        !- Field 13
    Until: 21:00,0.7,        !- Field 15
    Until: 22:00,0.8,        !- Field 17
    Until: 24:00,0.9,        !- Field 19
    For: Saturday WinterDesignDay, !- Field 21
    Until: 06:00,0.9,        !- Field 22
    Until: 07:00,0.7,        !- Field 24
    Until: 09:00,0.5,        !- Field 26
    Until: 17:00,0.3,        !- Field 28
    Until: 18:00,0.5,        !- Field 30
    Until: 21:00,0.6,        !- Field 32
    Until: 24:00,0.7,        !- Field 34
    For: Sunday Holidays AllOtherDays, !- Field 36
    Until: 08:00,0.7,        !- Field 37
    Until: 11:00,0.5,        !- Field 39
    Until: 13:00,0.3,        !- Field 41
    Until: 16:00,0.2,        !- Field 43
    Until: 17:00,0.3,        !- Field 45
    Until: 19:00,0.4,        !- Field 47
    Until: 21:00,0.6,        !- Field 49
    Until: 24:00,0.8;        !- Field 51

  Schedule:Compact,
    Hotel SWH,               !- Name
    Fraction,                !- Schedule Type Limits Name
    Through: 12/31,          !- Field 1
    For: Weekdays SummerDesignDay, !- Field 2
    Until: 01:00,0.2,        !- Field 3
    Until: 04:00,0.15,       !- Field 5
    Until: 05:00,0.2,        !- Field 7
    Until: 06:00,0.25,       !- Field 9
    Until: 07:00,0.5,        !- Field 11
    Until: 08:00,0.6,        !- Field 13
    Until: 09:00,0.55,       !- Field 15
    Until: 10:00,0.45,       !- Field 17
    Until: 11:00,0.4,        !- Field 19
    Until: 12:00,0.45,       !- Field 21
    Until: 13:00,0.4,        !- Field 23
    Until: 14:00,0.35,       !- Field 25
    Until: 17:00,0.3,        !- Field 27
    Until: 18:00,0.4,        !- Field 29
    Until: 19:00,0.55,       !- Field 31
    Until: 20:00,0.6,        !- Field 33
    Until: 21:00,0.5,        !- Field 35
    Until: 22:00,0.55,       !- Field 37
    Until: 23:00,0.45,       !- Field 39
    Until: 24:00,0.25,       !- Field 41
    For: Saturday WinterDesignDay, !- Field 43
    Until: 01:00,0.2,        !- Field 44
    Until: 04:00,0.15,       !- Field 46
    Until: 05:00,0.2,        !- Field 48
    Until: 06:00,0.25,       !- Field 50
    Until: 07:00,0.4,        !- Field 52
    Until: 10:00,0.5,        !- Field 54
    Until: 11:00,0.45,       !- Field 56
    Until: 13:00,0.5,        !- Field 58
    Until: 14:00,0.45,       !- Field 60
    Until: 16:00,0.4,        !- Field 62
    Until: 17:00,0.35,       !- Field 64
    Until: 18:00,0.4,        !- Field 66
    Until: 20:00,0.55,       !- Field 68
    Until: 21:00,0.5,        !- Field 70
    Until: 22:00,0.55,       !- Field 72
    Until: 23:00,0.4,        !- Field 74